   30
Geometry Step: 0
    C      3.97371005     -1.54071740      0.06465482      4.14437829
    C      2.84032386     -0.71304021      0.06461006      3.88722292
    C      2.93529284      0.71158343      0.06463651      4.12434292
    C      4.20099019      1.31287105      0.06472067      4.02972185
    C      5.33083089      0.49041262      0.06477068      4.11546975
    C      5.22020560     -0.91265327      0.06473582      4.04296157
    H      3.88253047     -2.63447435      0.06463221      0.91612151
    H      4.30059032      2.40582518      0.06474996      0.91243234
    H      6.33079300      0.94452953      0.06484042      0.92356360
    H      6.13222827     -1.52377376      0.06477660      0.92497141
    N      1.50602140     -1.06665307      0.06454805      5.11308131
    H      1.12100726     -2.02562641      0.06453376      0.77131017
    C      1.56150698      1.23638048      0.06458519      3.62457072
    O      1.14987175      2.42259199      0.06458678      6.45576995
    N     -1.50602133      1.06665312      0.06454805      5.11312678
    C     -1.56150695     -1.23638042      0.06458519      3.62469163
    C     -2.84032379      0.71304029      0.06461006      3.88720434
    H     -1.12100715      2.02562644      0.06453376      0.77135501
    C     -2.93529280     -0.71158334      0.06463651      4.12424028
    O     -1.14887173     -2.42259193      0.06458678      6.45594608
    C     -3.97370995      1.54071750      0.06465482      4.14439121
    C     -4.20099015     -1.31287093      0.06472067      4.02974438
    C     -5.22020550      0.91265340      0.06473582      4.04295598
    H     -3.88253034      2.63447443      0.06463221      0.91612008
    C     -5.33083082     -0.49041248      0.06477068      4.11547326
    H     -4.30059031     -2.40582504      0.06474996      0.91242614
    H     -6.13222815      1.52377390      0.06477660      0.92496812
    H     -6.33079294     -0.94452937      0.06484042      0.92355856
    C     -0.71205094     -0.04717170      0.06453550      4.01394379
    C      0.71205098      0.04717173      0.06453550      4.01393607
   30
Geometry Step: 0
    C      3.97371005     -1.54071740      0.06465482      4.11779235
    C      2.84032386     -0.71304021      0.06461006      3.92860368
    C      2.93529284      0.71158343      0.06463651      4.09201313
    C      4.20099019      1.31287105      0.06472067      4.04474050
    C      5.33083089      0.49041262      0.06477068      4.08917086
    C      5.22020560     -0.91265327      0.06473582      4.06918804
    H      3.88253047     -2.63447435      0.06463221      0.91733766
    H      4.30059032      2.40582518      0.06474996      0.91039443
    H      6.33079300      0.94452953      0.06484042      0.92397467
    H      6.13222827     -1.52377376      0.06477660      0.92370767
    N      1.50602140     -1.06665307      0.06454805      5.03806219
    H      1.12100726     -2.02562641      0.06453376      0.76806733
    C      1.56150698      1.23638048      0.06458519      3.68504044
    O      1.14987175      2.42259199      0.06458678      6.46774810
    N     -1.50602133      1.06665312      0.06454805      5.03811242
    C     -1.56150695     -1.23638042      0.06458519      3.68525090
    C     -2.84032379      0.71304029      0.06461006      3.92860690
    H     -1.12100715      2.02562644      0.06453376      0.76810917
    C     -2.93529280     -0.71158334      0.06463651      4.09190219
    O     -1.14887173     -2.42259193      0.06458678      6.46787787
    C     -3.97370995      1.54071750      0.06465482      4.11779825
    C     -4.20099015     -1.31287093      0.06472067      4.04478385
    C     -5.22020550      0.91265340      0.06473582      4.06920650
    H     -3.88253034      2.63447443      0.06463221      0.91733995
    C     -5.33083082     -0.49041248      0.06477068      4.08916173
    H     -4.30059031     -2.40582504      0.06474996      0.91039144
    H     -6.13222815      1.52377390      0.06477660      0.92370667
    H     -6.33079294     -0.94452937      0.06484042      0.92397311
    C     -0.71205094     -0.04717170      0.06453550      4.02390122
    C      0.71205098      0.04717173      0.06453550      4.02403680
   30
Geometry Step: 0
    C      3.97371005     -1.54071740      0.06465482      4.11622473
    C      2.84032386     -0.71304021      0.06461006      3.92947668
    C      2.93529284      0.71158343      0.06463651      4.09327596
    C      4.20099019      1.31287105      0.06472067      4.04393727
    C      5.33083089      0.49041262      0.06477068      4.08829414
    C      5.22020560     -0.91265327      0.06473582      4.07009948
    H      3.88253047     -2.63447435      0.06463221      0.91727928
    H      4.30059032      2.40582518      0.06474996      0.91017630
    H      6.33079300      0.94452953      0.06484042      0.92390534
    H      6.13222827     -1.52377376      0.06477660      0.92356805
    N      1.50602140     -1.06665307      0.06454805      5.03471051
    H      1.12100726     -2.02562641      0.06453376      0.76764766
    C      1.56150698      1.23638048      0.06458519      3.68151403
    O      1.14987175      2.42259199      0.06458678      6.47384538
    N     -1.50602133      1.06665312      0.06454805      5.03476204
    C     -1.56150695     -1.23638042      0.06458519      3.68170652
    C     -2.84032379      0.71304029      0.06461006      3.92947779
    H     -1.12100715      2.02562644      0.06453376      0.76769069
    C     -2.93529280     -0.71158334      0.06463651      4.09317023
    O     -1.14887173     -2.42259193      0.06458678      6.47399409
    C     -3.97370995      1.54071750      0.06465482      4.11623123
    C     -4.20099015     -1.31287093      0.06472067      4.04397758
    C     -5.22020550      0.91265340      0.06473582      4.07011628
    H     -3.88253034      2.63447443      0.06463221      0.91728168
    C     -5.33083082     -0.49041248      0.06477068      4.08828702
    H     -4.30059031     -2.40582504      0.06474996      0.91017329
    H     -6.13222815      1.52377390      0.06477660      0.92356716
    H     -6.33079294     -0.94452937      0.06484042      0.92390373
    C     -0.71205094     -0.04717170      0.06453550      4.02578938
    C      0.71205098      0.04717173      0.06453550      4.02591648
   30
Geometry Step: 1
    C      3.97370733     -1.54064003      0.06465496      4.14436937
    C      2.84032895     -0.71309590      0.06461004      3.88719680
    C      2.93541336      0.71145836      0.06463649      4.12383345
    C      4.20108277      1.31264852      0.06472053      4.02968285
    C      5.33080338      0.49045167      0.06477048      4.11547133
    C      5.22017309     -0.91264809      0.06473579      4.04294855
    H      3.88253716     -2.63445710      0.06463227      0.91613246
    H      4.30061094      2.40583100      0.06474976      0.91243429
    H      6.33079102      0.94447850      0.06484012      0.92353716
    H      6.13223078     -1.52371529      0.06477653      0.92495333
    N      1.50615809     -1.06658068      0.06454831      5.11320414
    H      1.12104690     -2.02564946      0.06453391      0.77132216
    C      1.56218459      1.23574378      0.06458541      3.62517137
    O      1.14917103      2.42322447      0.06458690      6.45658777
    N     -1.50608208      1.06661242      0.06454831      5.11304006
    C     -1.56161712     -1.23622385      0.06458540      3.62470623
    C     -2.84034020      0.71310291      0.06461004      3.88723769
    H     -1.12108718      2.02563141      0.06453391      0.77124002
    C     -2.93525628     -0.71168445      0.06463649      4.12427118
    O     -1.14872908     -2.42252905      0.06458691      6.45600819
    C     -3.97368573      1.54062783      0.06465496      4.14429528
    C     -4.20113019     -1.31265855      0.06472054      4.02964420
    C     -5.22018548      0.91264707      0.06473579      4.04295948
    H     -3.88253569      2.63445585      0.06463227      0.91612151
    C     -5.33079073     -0.49046058      0.06477048      4.11541304
    H     -4.30061307     -2.40582831      0.06474976      0.91249193
    H     -6.13223006      1.52371520      0.06477653      0.92494334
    H     -6.33079010     -0.94447852      0.06484012      0.92354328
    C     -0.71209612     -0.04728686      0.06453550      4.01362513
    C      0.71193071      0.04730913      0.06453549      4.01361441
   30
Geometry Step: 1
    C      3.97370733     -1.54064003      0.06465496      4.11779356
    C      2.84032895     -0.71309590      0.06461004      3.92858870
    C      2.93541336      0.71145836      0.06463649      4.09139556
    C      4.20108277      1.31264852      0.06472053      4.04479332
    C      5.33080338      0.49045167      0.06477048      4.08912549
    C      5.22017309     -0.91264809      0.06473579      4.06922541
    H      3.88253716     -2.63445710      0.06463227      0.91734948
    H      4.30061094      2.40583100      0.06474976      0.91040057
    H      6.33079102      0.94447850      0.06484012      0.92395353
    H      6.13223078     -1.52371529      0.06477653      0.92369076
    N      1.50615809     -1.06658068      0.06454831      5.03825345
    H      1.12104690     -2.02564946      0.06453391      0.76807842
    C      1.56218459      1.23574378      0.06458541      3.68591262
    O      1.14917103      2.42322447      0.06458690      6.46829697
    N     -1.50608208      1.06661242      0.06454831      5.03813536
    C     -1.56161712     -1.23622385      0.06458540      3.68514384
    C     -2.84034020      0.71310291      0.06461004      3.92858211
    H     -1.12108718      2.02563141      0.06453391      0.76801447
    C     -2.93525628     -0.71168445      0.06463649      4.09192263
    O     -1.14872908     -2.42252905      0.06458691      6.46791026
    C     -3.97368573      1.54062783      0.06465496      4.11775178
    C     -4.20113019     -1.31265855      0.06472054      4.04468225
    C     -5.22018548      0.91264707      0.06473579      4.06917524
    H     -3.88253569      2.63445585      0.06463227      0.91733831
    C     -5.33079073     -0.49046058      0.06477048      4.08913960
    H     -4.30061307     -2.40582831      0.06474976      0.91045884
    H     -6.13223006      1.52371520      0.06477653      0.92368318
    H     -6.33079010     -0.94447852      0.06484012      0.92395769
    C     -0.71209612     -0.04728686      0.06453550      4.02378240
    C      0.71193071      0.04730913      0.06453549      4.02346418
   30
Geometry Step: 1
    C      3.97370733     -1.54064003      0.06465496      4.11622779
    C      2.84032895     -0.71309590      0.06461004      3.92945296
    C      2.93541336      0.71145836      0.06463649      4.09266984
    C      4.20108277      1.31264852      0.06472053      4.04397564
    C      5.33080338      0.49045167      0.06477048      4.08825164
    C      5.22017309     -0.91264809      0.06473579      4.07012915
    H      3.88253716     -2.63445710      0.06463227      0.91729054
    H      4.30061094      2.40583100      0.06474976      0.91017918
    H      6.33079102      0.94447850      0.06484012      0.92388247
    H      6.13223078     -1.52371529      0.06477653      0.92355053
    N      1.50615809     -1.06658068      0.06454831      5.03490648
    H      1.12104690     -2.02564946      0.06453391      0.76765795
    C      1.56218459      1.23574378      0.06458541      3.68231266
    O      1.14917103      2.42322447      0.06458690      6.47448254
    N     -1.50608208      1.06661242      0.06454831      5.03478077
    C     -1.56161712     -1.23622385      0.06458540      3.68160680
    C     -2.84034020      0.71310291      0.06461004      3.92945460
    H     -1.12108718      2.02563141      0.06453391      0.76759127
    C     -2.93525628     -0.71168445      0.06463649      4.09318502
    O     -1.14872908     -2.42252905      0.06458691      6.47403165
    C     -3.97368573      1.54062783      0.06465496      4.11618240
    C     -4.20113019     -1.31265855      0.06472054      4.04387866
    C     -5.22018548      0.91264707      0.06473579      4.07008760
    H     -3.88253569      2.63445585      0.06463227      0.91728017
    C     -5.33079073     -0.49046058      0.06477048      4.08825935
    H     -4.30061307     -2.40582831      0.06474976      0.91023976
    H     -6.13223006      1.52371520      0.06477653      0.92354367
    H     -6.33079010     -0.94447852      0.06484012      0.92388798
    C     -0.71209612     -0.04728686      0.06453550      4.02565436
    C      0.71193071      0.04730913      0.06453549      4.02536657
   30
Geometry Step: 2
    C      3.97370946     -1.54070077      0.06465485      4.14437555
    C      2.84032495     -0.71305218      0.06461006      3.88721623
    C      2.93531875      0.71155655      0.06463651      4.12423189
    C      4.20101008      1.31282322      0.06472064      4.02971333
    C      5.33082498      0.49042102      0.06477064      4.11546830
    C      5.22019861     -0.91265215      0.06473581      4.04295934
    H      3.88253191     -2.63447064      0.06463222      0.91612452
    H      4.30059475      2.40582643      0.06474992      0.91243281
    H      6.33079258      0.94451857      0.06484036      0.92355772
    H      6.13222881     -1.52376119      0.06477658      0.92496764
    N      1.50605078     -1.06663751      0.06454811      5.11310704
    H      1.12101578     -2.02563136      0.06453379      0.77131336
    C      1.56165262      1.23624364      0.06458523      3.62469861
    O      1.14972115      2.42272793      0.06458681      6.45595144
    N     -1.50603438      1.06664437      0.06454811      5.11310718
    C     -1.56153063     -1.23634677      0.06458523      3.62469355
    C     -2.84032732      0.71305375      0.06461006      3.88721029
    H     -1.12102435      2.02562751      0.06453379      0.77133092
    C     -2.93528495     -0.71160508      0.06463651      4.12424542
    O     -1.14884107     -2.42257842      0.06458681      6.45596427
    C     -3.97370474      1.54069823      0.06465485      4.14436977
    C     -4.20102025     -1.31282528      0.06472064      4.02972270
    C     -5.22020120      0.91265204      0.06473581      4.04295735
    H     -3.88253149      2.63447044      0.06463222      0.91612106
    C     -5.33082221     -0.49042282      0.06477064      4.11545853
    H     -4.30059520     -2.40582574      0.06474992      0.91244037
    H     -6.13222856      1.52376129      0.06477658      0.92496293
    H     -6.33079233     -0.94451844      0.06484036      0.92355511
    C     -0.71206065     -0.04719645      0.06453550      4.01387535
    C      0.71202513      0.04720126      0.06453550      4.01386742
   30
Geometry Step: 2
    C      3.97370946     -1.54070077      0.06465485      4.11779301
    C      2.84032495     -0.71305218      0.06461006      3.92860194
    C      2.93531875      0.71155655      0.06463651      4.09187967
    C      4.20101008      1.31282322      0.06472064      4.04475122
    C      5.33082498      0.49042102      0.06477064      4.08916336
    C      5.22019861     -0.91265215      0.06473581      4.06919519
    H      3.88253191     -2.63447064      0.06463222      0.91733922
    H      4.30059475      2.40582643      0.06474992      0.91039569
    H      6.33079258      0.94451857      0.06484036      0.92397008
    H      6.13222881     -1.52376119      0.06477658      0.92370355
    N      1.50605078     -1.06663751      0.06454811      5.03810312
    H      1.12101578     -2.02563136      0.06453379      0.76806955
    C      1.56165262      1.23624364      0.06458523      3.68522640
    O      1.14972115      2.42272793      0.06458681      6.46786645
    N     -1.50603438      1.06664437      0.06454811      5.03811621
    C     -1.56153063     -1.23634677      0.06458523      3.68522664
    C     -2.84032732      0.71305375      0.06461006      3.92860267
    H     -1.12102435      2.02562751      0.06453379      0.76808859
    C     -2.93528495     -0.71160508      0.06463651      4.09190613
    O     -1.14884107     -2.42257842      0.06458681      6.46788535
    C     -3.97370474      1.54069823      0.06465485      4.11778821
    C     -4.20102025     -1.31282528      0.06472064      4.04476164
    C     -5.22020120      0.91265204      0.06473581      4.06919886
    H     -3.88253149      2.63447044      0.06463222      0.91733863
    C     -5.33082221     -0.49042282      0.06477064      4.08915914
    H     -4.30059520     -2.40582574      0.06474992      0.91040597
    H     -6.13222856      1.52376129      0.06477658      0.92370117
    H     -6.33079233     -0.94451844      0.06484036      0.92396980
    C     -0.71206065     -0.04719645      0.06453550      4.02387730
    C      0.71202513      0.04720126      0.06453550      4.02391523
   30
Geometry Step: 2
    C      3.97370946     -1.54070077      0.06465485      4.11622544
    C      2.84032495     -0.71305218      0.06461006      3.92947168
    C      2.93531875      0.71155655      0.06463651      4.09314536
    C      4.20101008      1.31282322      0.06472064      4.04394558
    C      5.33082498      0.49042102      0.06477064      4.08828518
    C      5.22019861     -0.91265215      0.06473581      4.07010590
    H      3.88253191     -2.63447064      0.06463222      0.91728169
    H      4.30059475      2.40582643      0.06474992      0.91017688
    H      6.33079258      0.94451857      0.06484036      0.92390042
    H      6.13222881     -1.52376119      0.06477658      0.92356427
    N      1.50605078     -1.06663751      0.06454811      5.03475257
    H      1.12101578     -2.02563136      0.06453379      0.76764987
    C      1.56165262      1.23624364      0.06458523      3.68168561
    O      1.14972115      2.42272793      0.06458681      6.47398305
    N     -1.50603438      1.06664437      0.06454811      5.03476590
    C     -1.56153063     -1.23634677      0.06458523      3.68168507
    C     -2.84032732      0.71305375      0.06461006      3.92947285
    H     -1.12102435      2.02562751      0.06453379      0.76766927
    C     -2.93528495     -0.71160508      0.06463651      4.09317330
    O     -1.14884107     -2.42257842      0.06458681      6.47400217
    C     -3.97370474      1.54069823      0.06465485      4.11622078
    C     -4.20102025     -1.31282528      0.06472064      4.04395639
    C     -5.22020120      0.91265204      0.06473581      4.07011015
    H     -3.88253149      2.63447044      0.06463222      0.91728134
    C     -5.33082221     -0.49042282      0.06477064      4.08828124
    H     -4.30059520     -2.40582574      0.06474992      0.91018757
    H     -6.13222856      1.52376129      0.06477658      0.92356210
    H     -6.33079233     -0.94451844      0.06484036      0.92390035
    C     -0.71206065     -0.04719645      0.06453550      4.02576017
    C      0.71202513      0.04720126      0.06453550      4.02579786
   30
Geometry Step: 3
    C      3.97371649     -1.54069902      0.06465491      4.14436579
    C      2.84033958     -0.71307494      0.06461005      3.88721512
    C      2.93538561      0.71147367      0.06463650      4.12421075
    C      4.20104717      1.31280245      0.06472057      4.02973578
    C      5.33084976      0.49040124      0.06477054      4.11545826
    C      5.22019438     -0.91264266      0.06473580      4.04296094
    H      3.88253647     -2.63445366      0.06463225      0.91612324
    H      4.30060272      2.40579679      0.06474982      0.91242641
    H      6.33079188      0.94449512      0.06484020      0.92355360
    H      6.13222859     -1.52373255      0.06477655      0.92496926
    N      1.50603513     -1.06661945      0.06454823      5.11308341
    H      1.12104690     -2.02562221      0.06453387      0.77131557
    C      1.56174261      1.23631564      0.06458534      3.62471110
    O      1.14951160      2.42270001      0.06458687      6.45594850
    N     -1.50604976      1.06662767      0.06454823      5.11306837
    C     -1.56154672     -1.23635517      0.06458533      3.62467904
    C     -2.84031510      0.71302112      0.06461005      3.88721617
    H     -1.12106001      2.02562592      0.06453387      0.77132981
    C     -2.93530532     -0.71159112      0.06463650      4.12424550
    O     -1.14878630     -2.42251068      0.06458688      6.45595535
    C     -3.97371409      1.54069074      0.06465491      4.14438466
    C     -4.20102816     -1.31280974      0.06472057      4.02973358
    C     -5.22019415      0.91263881      0.06473580      4.04294894
    H     -3.88253455      2.63445137      0.06463225      0.91611936
    C     -5.33085507     -0.49039368      0.06477054      4.11546836
    H     -4.30060895     -2.40579891      0.06474982      0.91244285
    H     -6.13222932      1.52373311      0.06477655      0.92497158
    H     -6.33079033     -0.94449519      0.06484020      0.92354912
    C     -0.71208602     -0.04718918      0.06453551      4.01391152
    C      0.71207597      0.04721592      0.06453551      4.01389808
   30
Geometry Step: 3
    C      3.97371649     -1.54069902      0.06465491      4.11779053
    C      2.84033958     -0.71307494      0.06461005      3.92860038
    C      2.93538561      0.71147367      0.06463650      4.09187656
    C      4.20104717      1.31280245      0.06472057      4.04476801
    C      5.33084976      0.49040124      0.06477054      4.08916692
    C      5.22019438     -0.91264266      0.06473580      4.06919404
    H      3.88253647     -2.63445366      0.06463225      0.91734044
    H      4.30060272      2.40579679      0.06474982      0.91039183
    H      6.33079188      0.94449512      0.06484020      0.92396797
    H      6.13222859     -1.52373255      0.06477655      0.92370769
    N      1.50603513     -1.06661945      0.06454823      5.03809099
    H      1.12104690     -2.02562221      0.06453387      0.76807363
    C      1.56174261      1.23631564      0.06458534      3.68523930
    O      1.14951160      2.42270001      0.06458687      6.46787111
    N     -1.50604976      1.06662767      0.06454823      5.03808275
    C     -1.56154672     -1.23635517      0.06458533      3.68519806
    C     -2.84031510      0.71302112      0.06461005      3.92860428
    H     -1.12106001      2.02562592      0.06453387      0.76808518
    C     -2.93530532     -0.71159112      0.06463650      4.09191601
    O     -1.14878630     -2.42251068      0.06458688      6.46787316
    C     -3.97371409      1.54069074      0.06465491      4.11780172
    C     -4.20102816     -1.31280974      0.06472057      4.04476382
    C     -5.22019415      0.91263881      0.06473580      4.06918018
    H     -3.88253455      2.63445137      0.06463225      0.91733485
    C     -5.33085507     -0.49039368      0.06477054      4.08917300
    H     -4.30060895     -2.40579891      0.06474982      0.91040725
    H     -6.13222932      1.52373311      0.06477655      0.92370835
    H     -6.33079033     -0.94449519      0.06484020      0.92396192
    C     -0.71208602     -0.04718918      0.06453551      4.02390688
    C      0.71207597      0.04721592      0.06453551      4.02392317
   30
Geometry Step: 3
    C      3.97371649     -1.54069902      0.06465491      4.11622287
    C      2.84033958     -0.71307494      0.06461005      3.92947155
    C      2.93538561      0.71147367      0.06463650      4.09314320
    C      4.20104717      1.31280245      0.06472057      4.04396264
    C      5.33084976      0.49040124      0.06477054      4.08828897
    C      5.22019438     -0.91264266      0.06473580      4.07010528
    H      3.88253647     -2.63445366      0.06463225      0.91728307
    H      4.30060272      2.40579679      0.06474982      0.91017327
    H      6.33079188      0.94449512      0.06484020      0.92389843
    H      6.13222859     -1.52373255      0.06477655      0.92356853
    N      1.50603513     -1.06661945      0.06454823      5.03474003
    H      1.12104690     -2.02562221      0.06453387      0.76765390
    C      1.56174261      1.23631564      0.06458534      3.68170011
    O      1.14951160      2.42270001      0.06458687      6.47398482
    N     -1.50604976      1.06662767      0.06454823      5.03473099
    C     -1.56154672     -1.23635517      0.06458533      3.68165805
    C     -2.84031510      0.71302112      0.06461005      3.92947513
    H     -1.12106001      2.02562592      0.06453387      0.76766612
    C     -2.93530532     -0.71159112      0.06463650      4.09318215
    O     -1.14878630     -2.42251068      0.06458688      6.47398841
    C     -3.97371409      1.54069074      0.06465491      4.11623392
    C     -4.20102816     -1.31280974      0.06472057      4.04395904
    C     -5.22019415      0.91263881      0.06473580      4.07009165
    H     -3.88253455      2.63445137      0.06463225      0.91727763
    C     -5.33085507     -0.49039368      0.06477054      4.08829480
    H     -4.30060895     -2.40579891      0.06474982      0.91018891
    H     -6.13222932      1.52373311      0.06477655      0.92356930
    H     -6.33079033     -0.94449519      0.06484020      0.92389250
    C     -0.71208602     -0.04718918      0.06453551      4.02579343
    C      0.71207597      0.04721592      0.06453551      4.02580132
   30
Geometry Step: 4
    C      3.97372787     -1.54069618      0.06465502      4.14434997
    C      2.84036323     -0.71311177      0.06461005      3.88721343
    C      2.93549379      0.71133956      0.06463649      4.12417660
    C      4.20110717      1.31276883      0.06472046      4.02977213
    C      5.33088986      0.49036923      0.06477038      4.11544195
    C      5.22018754     -0.91262729      0.06473577      4.04296351
    H      3.88254386     -2.63442619      0.06463231      0.91612116
    H      4.30061563      2.40574882      0.06474965      0.91241603
    H      6.33079076      0.94445719      0.06483995      0.92354691
    H      6.13222824     -1.52368620      0.06477649      0.92497188
    N      1.50600982     -1.06659022      0.06454843      5.11304533
    H      1.12109725     -2.02560740      0.06453400      0.77131910
    C      1.56188823      1.23643214      0.06458550      3.62473159
    O      1.14917254      2.42265485      0.06458698      6.45594409
    N     -1.50607465      1.06660064      0.06454843      5.11300538
    C     -1.56157276     -1.23636875      0.06458550      3.62465546
    C     -2.84029534      0.71296832      0.06461005      3.88722563
    H     -1.12111770      2.02562336      0.06453399      0.77132805
    C     -2.93533828     -0.71156855      0.06463649      4.12424550
    O     -1.14869767     -2.42240108      0.06458700      6.45594057
    C     -3.97372922      1.54067862      0.06465502      4.14440876
    C     -4.20104098     -1.31278460      0.06472045      4.02975112
    C     -5.22018275      0.91261741      0.06473577      4.04293537
    H     -3.88253949      2.63442052      0.06463231      0.91611661
    C     -5.33090825     -0.49034654      0.06477038      4.11548423
    H     -4.30063120     -2.40575549      0.06474965      0.91244686
    H     -6.13223054      1.52368753      0.06477649      0.92498560
    H     -6.33078709     -0.94445756      0.06483995      0.92353942
    C     -0.71212707     -0.04717742      0.06453553      4.01396971
    C      0.71215823      0.04723963      0.06453553      4.01394803
   30
Geometry Step: 4
    C      3.97372787     -1.54069618      0.06465502      4.11778651
    C      2.84036323     -0.71311177      0.06461005      3.92859785
    C      2.93549379      0.71133956      0.06463649      4.09187142
    C      4.20110717      1.31276883      0.06472046      4.04479521
    C      5.33088986      0.49036923      0.06477038      4.08917266
    C      5.22018754     -0.91262729      0.06473577      4.06919219
    H      3.88254386     -2.63442619      0.06463231      0.91734239
    H      4.30061563      2.40574882      0.06474965      0.91038557
    H      6.33079076      0.94445719      0.06483995      0.92396454
    H      6.13222824     -1.52368620      0.06477649      0.92371439
    N      1.50600982     -1.06659022      0.06454843      5.03807138
    H      1.12109725     -2.02560740      0.06453400      0.76808024
    C      1.56188823      1.23643214      0.06458550      3.68526029
    O      1.14917254      2.42265485      0.06458698      6.46787868
    N     -1.50607465      1.06660064      0.06454843      5.03802862
    C     -1.56157276     -1.23636875      0.06458550      3.68515184
    C     -2.84029534      0.71296832      0.06461005      3.92860688
    H     -1.12111770      2.02562336      0.06453399      0.76807966
    C     -2.93533828     -0.71156855      0.06463649      4.09193199
    O     -1.14869767     -2.42240108      0.06458700      6.46785342
    C     -3.97372922      1.54067862      0.06465502      4.11782359
    C     -4.20104098     -1.31278460      0.06472045      4.04476736
    C     -5.22018275      0.91261741      0.06473577      4.06914995
    H     -3.88253949      2.63442052      0.06463231      0.91732875
    C     -5.33090825     -0.49034654      0.06477038      4.08919544
    H     -4.30063120     -2.40575549      0.06474965      0.91040930
    H     -6.13223054      1.52368753      0.06477649      0.92371996
    H     -6.33078709     -0.94445756      0.06483995      0.92394918
    C     -0.71212707     -0.04717742      0.06453553      4.02395474
    C      0.71215823      0.04723963      0.06453553      4.02393596
   30
Geometry Step: 4
    C      3.97372787     -1.54069618      0.06465502      4.11621870
    C      2.84036323     -0.71311177      0.06461005      3.92947133
    C      2.93549379      0.71133956      0.06463649      4.09313959
    C      4.20110717      1.31276883      0.06472046      4.04399025
    C      5.33088986      0.49036923      0.06477038      4.08829509
    C      5.22018754     -0.91262729      0.06473577      4.07010429
    H      3.88254386     -2.63442619      0.06463231      0.91728531
    H      4.30061563      2.40574882      0.06474965      0.91016741
    H      6.33079076      0.94445719      0.06483995      0.92389520
    H      6.13222824     -1.52368620      0.06477649      0.92357541
    N      1.50600982     -1.06659022      0.06454843      5.03471975
    H      1.12109725     -2.02560740      0.06453400      0.76766042
    C      1.56188823      1.23643214      0.06458550      3.68172370
    O      1.14917254      2.42265485      0.06458698      6.47398771
    N     -1.50607465      1.06660064      0.06454843      5.03467453
    C     -1.56157276     -1.23636875      0.06458550      3.68161433
    C     -2.84029534      0.71296832      0.06461005      3.92947879
    H     -1.12111770      2.02562336      0.06453399      0.76766102
    C     -2.93533828     -0.71156855      0.06463649      4.09319648
    O     -1.14869767     -2.42240108      0.06458700      6.47396614
    C     -3.97372922      1.54067862      0.06465502      4.11625519
    C     -4.20104098     -1.31278460      0.06472045      4.04396332
    C     -5.22018275      0.91261741      0.06473577      4.07006170
    H     -3.88253949      2.63442052      0.06463231      0.91727163
    C     -5.33090825     -0.49034654      0.06477038      4.08831675
    H     -4.30063120     -2.40575549      0.06474965      0.91019108
    H     -6.13223054      1.52368753      0.06477649      0.92358094
    H     -6.33078709     -0.94445756      0.06483995      0.92387981
    C     -0.71212707     -0.04717742      0.06453553      4.02584726
    C      0.71215823      0.04723963      0.06453553      4.02580685
   30
Geometry Step: 5
    C      3.97371916     -1.54069835      0.06465494      4.14436208
    C      2.84034511     -0.71308356      0.06461005      3.88721473
    C      2.93541091      0.71144230      0.06463650      4.12420279
    C      4.20106120      1.31279458      0.06472054      4.02974429
    C      5.33085914      0.49039375      0.06477050      4.11545444
    C      5.22019278     -0.91263906      0.06473579      4.04296154
    H      3.88253820     -2.63444724      0.06463227      0.91612275
    H      4.30060574      2.40578557      0.06474978      0.91242398
    H      6.33079162      0.94448625      0.06484015      0.92355204
    H      6.13222851     -1.52372171      0.06477654      0.92496987
    N      1.50602921     -1.06661261      0.06454828      5.11307452
    H      1.12105867     -2.02561875      0.06453390      0.77131639
    C      1.56177667      1.23634288      0.06458537      3.62471591
    O      1.14943230      2.42268945      0.06458690      6.45594751
    N     -1.50605559      1.06662135      0.06454828      5.11305361
    C     -1.56155281     -1.23635834      0.06458537      3.62467351
    C     -2.84031048      0.71300877      0.06461005      3.88721838
    H     -1.12107350      2.02562532      0.06453390      0.77132941
    C     -2.93531303     -0.71158585      0.06463650      4.12424549
    O     -1.14876557     -2.42248505      0.06458691      6.45595185
    C     -3.97371763      1.54068791      0.06465494      4.14439029
    C     -4.20103116     -1.31280386      0.06472054      4.02973768
    C     -5.22019149      0.91263381      0.06473579      4.04294577
    H     -3.88253571      2.63444416      0.06463227      0.91611872
    C     -5.33086751     -0.49038266      0.06477050      4.11547207
    H     -4.30061416     -2.40578876      0.06474978      0.91244379
    H     -6.13222960      1.52372245      0.06477654      0.92497486
    H     -6.33078957     -0.94448639      0.06484015      0.92354685
    C     -0.71209562     -0.04718643      0.06453552      4.01392508
    C      0.71209521      0.04722146      0.06453551      4.01390982
   30
Geometry Step: 5
    C      3.97371916     -1.54069835      0.06465494      4.11778959
    C      2.84034511     -0.71308356      0.06461005      3.92859979
    C      2.93541091      0.71144230      0.06463650      4.09187537
    C      4.20106120      1.31279458      0.06472054      4.04477437
    C      5.33085914      0.49039375      0.06477050      4.08916826
    C      5.22019278     -0.91263906      0.06473579      4.06919361
    H      3.88253820     -2.63444724      0.06463227      0.91734089
    H      4.30060574      2.40578557      0.06474978      0.91039036
    H      6.33079162      0.94448625      0.06484015      0.92396717
    H      6.13222851     -1.52372171      0.06477654      0.92370926
    N      1.50602921     -1.06661261      0.06454828      5.03808641
    H      1.12105867     -2.02561875      0.06453390      0.76807518
    C      1.56177667      1.23634288      0.06458537      3.68524419
    O      1.14943230      2.42268945      0.06458690      6.46787288
    N     -1.50605559      1.06662135      0.06454828      5.03807009
    C     -1.56155281     -1.23635834      0.06458537      3.68518725
    C     -2.84031048      0.71300877      0.06461005      3.92860489
    H     -1.12107350      2.02562532      0.06453390      0.76808389
    C     -2.93531303     -0.71158585      0.06463650      4.09191974
    O     -1.14876557     -2.42248505      0.06458691      6.46786855
    C     -3.97371763      1.54068791      0.06465494      4.11780683
    C     -4.20103116     -1.31280386      0.06472054      4.04476465
    C     -5.22019149      0.91263381      0.06473579      4.06917311
    H     -3.88253571      2.63444416      0.06463227      0.91733343
    C     -5.33086751     -0.49038266      0.06477050      4.08917825
    H     -4.30061416     -2.40578876      0.06474978      0.91040773
    H     -6.13222960      1.52372245      0.06477654      0.92371107
    H     -6.33078957     -0.94448639      0.06484015      0.92395894
    C     -0.71209562     -0.04718643      0.06453552      4.02391807
    C      0.71209521      0.04722146      0.06453551      4.02392617
   30
Geometry Step: 5
    C      3.97371916     -1.54069835      0.06465494      4.11622189
    C      2.84034511     -0.71308356      0.06461005      3.92947149
    C      2.93541091      0.71144230      0.06463650      4.09314237
    C      4.20106120      1.31279458      0.06472054      4.04396909
    C      5.33085914      0.49039375      0.06477050      4.08829040
    C      5.22019278     -0.91263906      0.06473579      4.07010505
    H      3.88253820     -2.63444724      0.06463227      0.91728360
    H      4.30060574      2.40578557      0.06474978      0.91017190
    H      6.33079162      0.94448625      0.06484015      0.92389767
    H      6.13222851     -1.52372171      0.06477654      0.92357014
    N      1.50602921     -1.06661261      0.06454828      5.03473529
    H      1.12105867     -2.02561875      0.06453390      0.76765542
    C      1.56177667      1.23634288      0.06458537      3.68170561
    O      1.14943230      2.42268945      0.06458690      6.47398549
    N     -1.50605559      1.06662135      0.06454828      5.03471778
    C     -1.56155281     -1.23635834      0.06458537      3.68164783
    C     -2.84031048      0.71300877      0.06461005      3.92947598
    H     -1.12107350      2.02562532      0.06453390      0.76766493
    C     -2.93531303     -0.71158585      0.06463650      4.09318550
    O     -1.14876557     -2.42248505      0.06458691      6.47398320
    C     -3.97371763      1.54068791      0.06465494      4.11623889
    C     -4.20103116     -1.31280386      0.06472054      4.04396004
    C     -5.22019149      0.91263381      0.06473579      4.07008465
    H     -3.88253571      2.63444416      0.06463227      0.91727623
    C     -5.33086751     -0.49038266      0.06477050      4.08829993
    H     -4.30061416     -2.40578876      0.06474978      0.91018942
    H     -6.13222960      1.52372245      0.06477654      0.92357202
    H     -6.33078957     -0.94448639      0.06484015      0.92388954
    C     -0.71209562     -0.04718643      0.06453552      4.02580602
    C      0.71209521      0.04722146      0.06453551      4.02580262
